Version 4
SHEET 1 908 680
WIRE -48 -48 -48 -112
WIRE -384 16 -384 -64
WIRE 208 48 208 -32
WIRE -48 80 -48 32
WIRE -384 128 -384 96
WIRE 112 128 -384 128
WIRE 512 160 416 160
WIRE 112 192 -384 192
WIRE 512 192 512 160
WIRE -384 224 -384 192
WIRE 512 320 512 256
WIRE -384 384 -384 304
FLAG 208 -32 VDD
FLAG 512 320 0
FLAG -48 80 0
FLAG -48 -112 VDD
FLAG -384 -64 0
FLAG -384 384 0
SYMBOL cmos_nor 224 160 R0
WINDOW 0 0 0 Left 0
WINDOW 39 0 28 Left 0
SYMATTR InstName X1
SYMATTR SpiceLine T_SIZE=4
SYMBOL voltage -384 208 R0
WINDOW 123 0 0 Left 0
WINDOW 39 0 0 Left 0
SYMATTR InstName VB
SYMATTR Value PULSE(0 1 2ms 10n 10n 2ms 4ms)
SYMBOL voltage -384 112 R180
WINDOW 0 24 96 Left 2
WINDOW 3 24 16 Left 2
WINDOW 123 0 0 Left 0
WINDOW 39 0 0 Left 0
SYMATTR InstName VA
SYMATTR Value PULSE(0 1 1ms 10n 10n 2ms 4ms)
SYMBOL cap 496 192 R0
SYMATTR InstName C1
SYMATTR Value 100f
SYMBOL voltage -48 -64 R0
WINDOW 123 0 0 Left 0
WINDOW 39 0 0 Left 0
SYMATTR InstName VDD1
SYMATTR Value 1
TEXT -432 -176 Left 2 !.include 90nm_bulk.txt
TEXT -432 -144 Left 2 !.tran 0 50ms 0 1ms
