Version 4
SHEET 1 880 680
WIRE 192 -96 -304 -96
WIRE 160 -80 -416 -80
WIRE -304 -32 -304 -96
WIRE 368 -16 304 -16
WIRE 496 -16 432 -16
WIRE -416 0 -416 -80
WIRE 160 48 160 -80
WIRE 192 48 192 -96
WIRE 368 80 336 80
WIRE 496 80 432 80
WIRE -304 96 -304 48
WIRE 304 112 304 -16
WIRE 304 112 240 112
WIRE -416 128 -416 80
WIRE 336 144 336 80
WIRE 336 144 240 144
WIRE 112 160 -416 160
WIRE 368 176 240 176
WIRE 496 176 432 176
WIRE 304 208 240 208
WIRE 304 272 304 208
WIRE 368 272 304 272
WIRE 496 272 432 272
WIRE -416 304 -416 240
WIRE 176 336 176 272
WIRE 176 464 176 416
FLAG 176 464 0
FLAG -416 128 0
FLAG -304 96 0
FLAG -416 304 0
FLAG 496 -16 0
FLAG 496 80 0
FLAG 496 176 0
FLAG 496 272 0
SYMBOL demultiplexer_1_to_4 176 160 R0
WINDOW 0 0 0 Left 0
SYMATTR InstName X1
SYMBOL voltage 176 320 R0
WINDOW 123 0 0 Left 0
WINDOW 39 0 0 Left 0
SYMATTR InstName VDD1
SYMATTR Value 1
SYMBOL voltage -416 144 R0
WINDOW 123 0 0 Left 0
WINDOW 39 0 0 Left 0
SYMATTR InstName VY
SYMATTR Value PULSE(0 1 3ms 10n 10n 10ms 20ms)
SYMBOL voltage -416 -16 R0
WINDOW 123 0 0 Left 0
WINDOW 39 0 0 Left 0
SYMATTR InstName VS1
SYMATTR Value PULSE(0 1 2ms 10n 10n 3ms 6ms)
SYMBOL voltage -304 -48 R0
WINDOW 123 0 0 Left 0
WINDOW 39 0 0 Left 0
SYMATTR InstName VS0
SYMATTR Value PULSE(0 1 1ms 10n 10n 3ms 6ms)
SYMBOL cap 432 -32 R90
WINDOW 0 0 32 VBottom 2
WINDOW 3 32 32 VTop 2
SYMATTR InstName C1
SYMATTR Value 100f
SYMBOL cap 432 64 R90
WINDOW 0 0 32 VBottom 2
WINDOW 3 32 32 VTop 2
SYMATTR InstName C2
SYMATTR Value 100f
SYMBOL cap 432 160 R90
WINDOW 0 0 32 VBottom 2
WINDOW 3 32 32 VTop 2
SYMATTR InstName C3
SYMATTR Value 100f
SYMBOL cap 432 256 R90
WINDOW 0 0 32 VBottom 2
WINDOW 3 32 32 VTop 2
SYMATTR InstName C4
SYMATTR Value 100f
TEXT -160 384 Left 2 !.include 90nm_bulk.txt
TEXT -160 352 Left 2 !.tran 0 50ms 0 1ms
